 xtb: 6.7.1 (b9eb0ff)
          06292612413D

113119  0     0  0            999 V2000
   -2.3200   -2.2211   -0.2302 C   0  0  0  0  0  0  0  0  0  0  0  0
   -1.0445   -2.4379   -0.5930 C   0  0  0  0  0  0  0  0  0  0  0  0
   -0.5983   -2.7137   -1.9917 C   0  0  0  0  0  0  0  0  0  0  0  0
   -0.4516   -1.7747   -2.5311 H   0  0  0  0  0  0  0  0  0  0  0  0
   -1.3297   -3.3098   -2.5296 H   0  0  0  0  0  0  0  0  0  0  0  0
    0.3508   -3.2422   -1.9862 H   0  0  0  0  0  0  0  0  0  0  0  0
    0.0066   -2.2086    0.4568 C   0  0  0  0  0  0  0  0  0  0  0  0
   -0.2746   -0.8220    1.0495 C   0  0  0  0  0  0  0  0  0  0  0  0
   -0.0601   -0.0763    0.2838 H   0  0  0  0  0  0  0  0  0  0  0  0
    0.3867   -0.6404    1.8979 H   0  0  0  0  0  0  0  0  0  0  0  0
   -1.7259   -0.6611    1.5508 C   0  0  0  0  0  0  0  0  0  0  0  0
   -1.5993   -0.4825    2.9427 O   0  0  0  0  0  0  0  0  0  0  0  0
   -2.4400   -0.1967    3.3276 H   0  0  0  0  0  0  0  0  0  0  0  0
   -2.6069   -1.9222    1.2333 C   0  0  0  0  0  0  0  0  0  0  0  0
   -4.0531   -1.6135    1.6352 C   0  0  0  0  0  0  0  0  0  0  0  0
   -4.4936   -0.7969    1.0833 H   0  0  0  0  0  0  0  0  0  0  0  0
   -4.6884   -2.4824    1.5127 H   0  0  0  0  0  0  0  0  0  0  0  0
   -4.0707   -1.3502    2.6929 H   0  0  0  0  0  0  0  0  0  0  0  0
   -2.1880   -3.1158    2.1358 C   0  0  0  0  0  0  0  0  0  0  0  0
   -1.4456   -2.8048    2.8660 H   0  0  0  0  0  0  0  0  0  0  0  0
   -1.8004   -3.9486    1.5553 H   0  0  0  0  0  0  0  0  0  0  0  0
   -3.0473   -3.4815    2.6927 H   0  0  0  0  0  0  0  0  0  0  0  0
   -2.3529    0.6570    0.9697 C   0  0  0  0  0  0  0  0  0  0  0  0
   -3.2657    0.8808    1.5344 H   0  0  0  0  0  0  0  0  0  0  0  0
   -1.4000    1.6604    1.3368 O   0  0  0  0  0  0  0  0  0  0  0  0
   -1.6126    2.3365    2.4755 C   0  0  0  0  0  0  0  0  0  0  0  0
   -2.6015    2.2028    3.1586 O   0  0  0  0  0  0  0  0  0  0  0  0
   -0.5087    3.2748    2.7713 C   0  0  0  0  0  0  0  0  0  0  0  0
   -0.4714    3.8898    4.0204 C   0  0  0  0  0  0  0  0  0  0  0  0
    0.5472    4.7733    4.3251 C   0  0  0  0  0  0  0  0  0  0  0  0
    1.5275    5.0519    3.3856 C   0  0  0  0  0  0  0  0  0  0  0  0
    1.4906    4.4460    2.1389 C   0  0  0  0  0  0  0  0  0  0  0  0
    0.4787    3.5564    1.8285 C   0  0  0  0  0  0  0  0  0  0  0  0
    0.4346    3.0853    0.8591 H   0  0  0  0  0  0  0  0  0  0  0  0
    2.2547    4.6676    1.4084 H   0  0  0  0  0  0  0  0  0  0  0  0
    2.3209    5.7448    3.6233 H   0  0  0  0  0  0  0  0  0  0  0  0
    0.5774    5.2481    5.2941 H   0  0  0  0  0  0  0  0  0  0  0  0
   -1.2460    3.6604    4.7360 H   0  0  0  0  0  0  0  0  0  0  0  0
   -2.6316    0.7700   -0.5637 C   0  0  0  0  0  0  0  0  0  0  0  0
   -1.9551    0.0783   -1.0673 H   0  0  0  0  0  0  0  0  0  0  0  0
   -2.1796    2.1772   -1.0254 C   0  0  0  0  0  0  0  0  0  0  0  0
   -2.6546    3.4117   -0.2397 C   0  0  0  0  0  0  0  0  0  0  0  0
   -3.3289    3.2406    0.5995 H   0  0  0  0  0  0  0  0  0  0  0  0
   -1.8316    4.0612    0.0702 H   0  0  0  0  0  0  0  0  0  0  0  0
   -3.3396    3.9257   -1.3741 O   0  0  0  0  0  0  0  0  0  0  0  0
   -2.8646    2.8756   -2.2252 C   0  0  0  0  0  0  0  0  0  0  0  0
   -3.9773    2.1797   -2.9792 C   0  0  0  0  0  0  0  0  0  0  0  0
   -3.8061    2.2297   -4.0537 H   0  0  0  0  0  0  0  0  0  0  0  0
   -4.9140    2.6988   -2.7746 H   0  0  0  0  0  0  0  0  0  0  0  0
   -4.1525    0.7055   -2.6198 C   0  0  0  0  0  0  0  0  0  0  0  0
   -5.3882    0.3657   -3.1757 O   0  0  0  0  0  0  0  0  0  0  0  0
   -5.6678   -0.5235   -2.9211 H   0  0  0  0  0  0  0  0  0  0  0  0
   -3.3380    0.1359   -3.0958 H   0  0  0  0  0  0  0  0  0  0  0  0
   -4.0707    0.4383   -1.0575 C   0  0  0  0  0  0  0  0  0  0  0  0
   -4.4444   -1.0518   -1.0420 C   0  0  0  0  0  0  0  0  0  0  0  0
   -5.6026   -1.4035   -1.0629 O   0  0  0  0  0  0  0  0  0  0  0  0
   -3.3218   -2.0333   -1.3495 C   0  0  0  0  0  0  0  0  0  0  0  0
   -2.7607   -1.5453   -2.1615 H   0  0  0  0  0  0  0  0  0  0  0  0
   -3.7619   -3.1941   -2.0531 O   0  0  0  0  0  0  0  0  0  0  0  0
   -4.4597   -4.2721   -1.6440 C   0  0  0  0  0  0  0  0  0  0  0  0
   -4.6843   -5.1107   -2.4716 O   0  0  0  0  0  0  0  0  0  0  0  0
   -4.8949   -4.3784   -0.2131 C   0  0  0  0  0  0  0  0  0  0  0  0
   -5.3637   -5.3473   -0.0653 H   0  0  0  0  0  0  0  0  0  0  0  0
   -5.6207   -3.5942   -0.0105 H   0  0  0  0  0  0  0  0  0  0  0  0
   -4.0363   -4.2807    0.4452 H   0  0  0  0  0  0  0  0  0  0  0  0
   -5.1794    1.2556   -0.3875 C   0  0  0  0  0  0  0  0  0  0  0  0
   -5.2168    1.1015    0.6887 H   0  0  0  0  0  0  0  0  0  0  0  0
   -5.0518    2.3148   -0.5783 H   0  0  0  0  0  0  0  0  0  0  0  0
   -6.1366    0.9470   -0.8029 H   0  0  0  0  0  0  0  0  0  0  0  0
   -2.1083    3.2697   -2.9151 H   0  0  0  0  0  0  0  0  0  0  0  0
   -0.7578    2.2248   -1.1595 O   0  0  0  0  0  0  0  0  0  0  0  0
   -0.1658    1.5163   -2.1382 C   0  0  0  0  0  0  0  0  0  0  0  0
   -0.7401    0.6962   -2.8091 O   0  0  0  0  0  0  0  0  0  0  0  0
    1.2748    1.9018   -2.2695 C   0  0  0  0  0  0  0  0  0  0  0  0
    1.8247    1.1548   -2.8390 H   0  0  0  0  0  0  0  0  0  0  0  0
    1.7204    2.0577   -1.2905 H   0  0  0  0  0  0  0  0  0  0  0  0
    1.3231    2.8460   -2.8102 H   0  0  0  0  0  0  0  0  0  0  0  0
   -0.0093   -2.9575    1.2505 H   0  0  0  0  0  0  0  0  0  0  0  0
    1.3299   -2.2512   -0.1015 O   0  0  0  0  0  0  0  0  0  0  0  0
    2.2690   -2.7896    0.6640 C   0  0  0  0  0  0  0  0  0  0  0  0
    2.1096   -3.1914    1.7895 O   0  0  0  0  0  0  0  0  0  0  0  0
    3.6306   -2.8826   -0.0148 C   0  0  0  0  0  0  0  0  0  0  0  0
    4.4766   -3.6664    0.7659 O   0  0  0  0  0  0  0  0  0  0  0  0
    4.0673   -3.7523    1.6441 H   0  0  0  0  0  0  0  0  0  0  0  0
    3.5210   -3.3528   -1.0015 H   0  0  0  0  0  0  0  0  0  0  0  0
    4.2212   -1.4501   -0.2216 C   0  0  0  0  0  0  0  0  0  0  0  0
    3.5848   -0.8244   -1.3495 N   0  0  0  0  0  0  0  0  0  0  0  0
    4.1769   -0.3054   -2.4545 C   0  0  0  0  0  0  0  0  0  0  0  0
    3.5094   -0.0003   -3.4263 O   0  0  0  0  0  0  0  0  0  0  0  0
    5.6493   -0.0939   -2.3969 C   0  0  0  0  0  0  0  0  0  0  0  0
    6.2408    0.5808   -1.3329 C   0  0  0  0  0  0  0  0  0  0  0  0
    7.6059    0.8035   -1.3304 C   0  0  0  0  0  0  0  0  0  0  0  0
    8.3865    0.3549   -2.3831 C   0  0  0  0  0  0  0  0  0  0  0  0
    7.7983   -0.3018   -3.4516 C   0  0  0  0  0  0  0  0  0  0  0  0
    6.4323   -0.5174   -3.4650 C   0  0  0  0  0  0  0  0  0  0  0  0
    5.9594   -1.0167   -4.2971 H   0  0  0  0  0  0  0  0  0  0  0  0
    8.4046   -0.6415   -4.2777 H   0  0  0  0  0  0  0  0  0  0  0  0
    9.4529    0.5247   -2.3742 H   0  0  0  0  0  0  0  0  0  0  0  0
    8.0604    1.3285   -0.5033 H   0  0  0  0  0  0  0  0  0  0  0  0
    5.6313    0.9440   -0.5179 H   0  0  0  0  0  0  0  0  0  0  0  0
    2.5835   -0.9613   -1.4218 H   0  0  0  0  0  0  0  0  0  0  0  0
    4.0850   -0.6610    1.0633 C   0  0  0  0  0  0  0  0  0  0  0  0
    3.0698    0.2689    1.2416 C   0  0  0  0  0  0  0  0  0  0  0  0
    2.9324    0.9348    2.4474 C   0  0  0  0  0  0  0  0  0  0  0  0
    3.8111    0.6787    3.4856 C   0  0  0  0  0  0  0  0  0  0  0  0
    4.8320   -0.2408    3.3114 C   0  0  0  0  0  0  0  0  0  0  0  0
    4.9704   -0.9059    2.1064 C   0  0  0  0  0  0  0  0  0  0  0  0
    5.7649   -1.6243    1.9693 H   0  0  0  0  0  0  0  0  0  0  0  0
    5.5236   -0.4411    4.1161 H   0  0  0  0  0  0  0  0  0  0  0  0
    3.6997    1.1966    4.4262 H   0  0  0  0  0  0  0  0  0  0  0  0
    2.1349    1.6519    2.5761 H   0  0  0  0  0  0  0  0  0  0  0  0
    2.3862    0.4790    0.4331 H   0  0  0  0  0  0  0  0  0  0  0  0
    5.2835   -1.5951   -0.4466 H   0  0  0  0  0  0  0  0  0  0  0  0
  1  2  2  0  0  0  0
  2  3  1  0  0  0  0
  3  4  1  0  0  0  0
  3  5  1  0  0  0  0
  3  6  1  0  0  0  0
  2  7  1  0  0  0  0
  7  8  1  0  0  0  0
  8  9  1  0  0  0  0
  8 10  1  0  0  0  0
  8 11  1  0  0  0  0
 11 12  1  0  0  0  0
 12 13  1  0  0  0  0
  1 14  1  0  0  0  0
 11 14  1  0  0  0  0
 14 15  1  0  0  0  0
 15 16  1  0  0  0  0
 15 17  1  0  0  0  0
 15 18  1  0  0  0  0
 14 19  1  0  0  0  0
 19 20  1  0  0  0  0
 19 21  1  0  0  0  0
 19 22  1  0  0  0  0
 11 23  1  0  0  0  0
 23 24  1  0  0  0  0
 23 25  1  0  0  0  0
 25 26  1  0  0  0  0
 26 27  2  0  0  0  0
 26 28  1  0  0  0  0
 28 29  4  0  0  0  0
 29 30  4  0  0  0  0
 30 31  4  0  0  0  0
 31 32  4  0  0  0  0
 28 33  4  0  0  0  0
 32 33  4  0  0  0  0
 33 34  1  0  0  0  0
 32 35  1  0  0  0  0
 31 36  1  0  0  0  0
 30 37  1  0  0  0  0
 29 38  1  0  0  0  0
 23 39  1  0  0  0  0
 39 40  1  0  0  0  0
 39 41  1  0  0  0  0
 41 42  1  0  0  0  0
 42 43  1  0  0  0  0
 42 44  1  0  0  0  0
 42 45  1  0  0  0  0
 41 46  1  0  0  0  0
 45 46  1  0  0  0  0
 46 47  1  0  0  0  0
 47 48  1  0  0  0  0
 47 49  1  0  0  0  0
 47 50  1  0  0  0  0
 50 51  1  0  0  0  0
 51 52  1  0  0  0  0
 50 53  1  0  0  0  0
 39 54  1  0  0  0  0
 50 54  1  0  0  0  0
 54 55  1  0  0  0  0
 55 56  2  0  0  0  0
  1 57  1  0  0  0  0
 55 57  1  0  0  0  0
 57 58  1  0  0  0  0
 57 59  1  0  0  0  0
 59 60  1  0  0  0  0
 60 61  2  0  0  0  0
 60 62  1  0  0  0  0
 62 63  1  0  0  0  0
 62 64  1  0  0  0  0
 62 65  1  0  0  0  0
 54 66  1  0  0  0  0
 66 67  1  0  0  0  0
 66 68  1  0  0  0  0
 66 69  1  0  0  0  0
 46 70  1  0  0  0  0
 41 71  1  0  0  0  0
 71 72  1  0  0  0  0
 72 73  2  0  0  0  0
 72 74  1  0  0  0  0
 74 75  1  0  0  0  0
 74 76  1  0  0  0  0
 74 77  1  0  0  0  0
  7 78  1  0  0  0  0
  7 79  1  0  0  0  0
 79 80  1  0  0  0  0
 80 81  2  0  0  0  0
 80 82  1  0  0  0  0
 82 83  1  0  0  0  0
 83 84  1  0  0  0  0
 82 85  1  0  0  0  0
 82 86  1  0  0  0  0
 86 87  1  0  0  0  0
 87 88  4  0  0  0  0
 88 89  2  0  0  0  0
 88 90  1  0  0  0  0
 90 91  4  0  0  0  0
 91 92  4  0  0  0  0
 92 93  4  0  0  0  0
 93 94  4  0  0  0  0
 90 95  4  0  0  0  0
 94 95  4  0  0  0  0
 95 96  1  0  0  0  0
 94 97  1  0  0  0  0
 93 98  1  0  0  0  0
 92 99  1  0  0  0  0
 91100  1  0  0  0  0
 87101  1  0  0  0  0
 86102  1  0  0  0  0
102103  4  0  0  0  0
103104  4  0  0  0  0
104105  4  0  0  0  0
105106  4  0  0  0  0
102107  4  0  0  0  0
106107  4  0  0  0  0
107108  1  0  0  0  0
106109  1  0  0  0  0
105110  1  0  0  0  0
104111  1  0  0  0  0
103112  1  0  0  0  0
 86113  1  0  0  0  0
M  END
