 xtb: 6.7.1 (b9eb0ff)
          06262612373D

 24 25  0     0  0            999 V2000
   -3.2668   -1.0612    0.0020 C   0  0  0  0  0  0  0  0  0  0  0  0
   -2.2766   -0.0195   -0.0013 N   0  0  0  0  0  0  0  0  0  0  0  0
   -0.9135   -0.2020    0.0037 C   0  0  0  0  0  0  0  0  0  0  0  0
   -0.3725    1.0762    0.0018 C   0  0  0  0  0  0  0  0  0  0  0  0
   -1.3526    2.0067   -0.0052 N   0  0  0  0  0  0  0  0  0  0  0  0
   -2.4701    1.3112   -0.0066 C   0  0  0  0  0  0  0  0  0  0  0  0
   -3.4434    1.7599   -0.0115 H   0  0  0  0  0  0  0  0  0  0  0  0
    0.9702    1.2833   -0.0009 N   0  0  0  0  0  0  0  0  0  0  0  0
    1.8257    0.2028   -0.0007 C   0  0  0  0  0  0  0  0  0  0  0  0
    3.0279    0.3475   -0.0052 O   0  0  0  0  0  0  0  0  0  0  0  0
    1.2515   -1.0637   -0.0009 N   0  0  0  0  0  0  0  0  0  0  0  0
   -0.1065   -1.3842    0.0030 C   0  0  0  0  0  0  0  0  0  0  0  0
   -0.5016   -2.5367    0.0044 O   0  0  0  0  0  0  0  0  0  0  0  0
    2.2018   -2.1638   -0.0037 C   0  0  0  0  0  0  0  0  0  0  0  0
    1.6324   -3.0901    0.0097 H   0  0  0  0  0  0  0  0  0  0  0  0
    2.8244   -2.1120   -0.8964 H   0  0  0  0  0  0  0  0  0  0  0  0
    2.8451   -2.0978    0.8731 H   0  0  0  0  0  0  0  0  0  0  0  0
    1.5217    2.6211    0.0094 C   0  0  0  0  0  0  0  0  0  0  0  0
    0.7306    3.3089   -0.2771 H   0  0  0  0  0  0  0  0  0  0  0  0
    1.8887    2.8714    1.0061 H   0  0  0  0  0  0  0  0  0  0  0  0
    2.3551    2.6688   -0.6903 H   0  0  0  0  0  0  0  0  0  0  0  0
   -2.7511   -2.0202   -0.0176 H   0  0  0  0  0  0  0  0  0  0  0  0
   -3.9109   -0.9754   -0.8745 H   0  0  0  0  0  0  0  0  0  0  0  0
   -3.8817   -0.9984    0.9014 H   0  0  0  0  0  0  0  0  0  0  0  0
  1  2  1  0  0  0  0
  2  3  1  0  0  0  0
  3  4  4  0  0  0  0
  4  5  4  0  0  0  0
  2  6  4  0  0  0  0
  5  6  4  0  0  0  0
  6  7  1  0  0  0  0
  4  8  1  0  0  0  0
  8  9  1  0  0  0  0
  9 10  2  0  0  0  0
  9 11  1  0  0  0  0
  3 12  1  0  0  0  0
 11 12  1  0  0  0  0
 12 13  2  0  0  0  0
 11 14  1  0  0  0  0
 14 15  1  0  0  0  0
 14 16  1  0  0  0  0
 14 17  1  0  0  0  0
  8 18  1  0  0  0  0
 18 19  1  0  0  0  0
 18 20  1  0  0  0  0
 18 21  1  0  0  0  0
  1 22  1  0  0  0  0
  1 23  1  0  0  0  0
  1 24  1  0  0  0  0
M  END
