 xtb: 6.7.1 (b9eb0ff)
          06262610533D

113119  0     0  0            999 V2000
   -2.2619   -2.2327   -0.3419 C   0  0  0  0  0  0  0  0  0  0  0  0
   -0.9546   -2.3770   -0.5769 C   0  0  0  0  0  0  0  0  0  0  0  0
   -0.3708   -2.4643   -1.9613 C   0  0  0  0  0  0  0  0  0  0  0  0
   -0.4120   -1.4760   -2.4314 H   0  0  0  0  0  0  0  0  0  0  0  0
   -0.9466   -3.1607   -2.5704 H   0  0  0  0  0  0  0  0  0  0  0  0
    0.6684   -2.7888   -1.9094 H   0  0  0  0  0  0  0  0  0  0  0  0
   -0.0002   -2.2688    0.5733 C   0  0  0  0  0  0  0  0  0  0  0  0
   -0.3483   -0.9783    1.3301 C   0  0  0  0  0  0  0  0  0  0  0  0
    0.0111   -0.1355    0.7373 H   0  0  0  0  0  0  0  0  0  0  0  0
    0.1684   -0.9725    2.2891 H   0  0  0  0  0  0  0  0  0  0  0  0
   -1.8589   -0.8103    1.5948 C   0  0  0  0  0  0  0  0  0  0  0  0
   -2.0977   -0.8406    2.9956 O   0  0  0  0  0  0  0  0  0  0  0  0
   -2.0395    0.0710    3.3645 H   0  0  0  0  0  0  0  0  0  0  0  0
   -2.6801   -2.0294    1.0966 C   0  0  0  0  0  0  0  0  0  0  0  0
   -4.1434   -1.7191    1.4098 C   0  0  0  0  0  0  0  0  0  0  0  0
   -4.5390   -0.9007    0.8268 H   0  0  0  0  0  0  0  0  0  0  0  0
   -4.7743   -2.5881    1.2605 H   0  0  0  0  0  0  0  0  0  0  0  0
   -4.1902   -1.4379    2.4623 H   0  0  0  0  0  0  0  0  0  0  0  0
   -2.3468   -3.2807    1.9517 C   0  0  0  0  0  0  0  0  0  0  0  0
   -1.6757   -3.0219    2.7683 H   0  0  0  0  0  0  0  0  0  0  0  0
   -1.8992   -4.0624    1.3437 H   0  0  0  0  0  0  0  0  0  0  0  0
   -3.2615   -3.6792    2.3860 H   0  0  0  0  0  0  0  0  0  0  0  0
   -2.3464    0.5434    1.0303 C   0  0  0  0  0  0  0  0  0  0  0  0
   -3.2710    0.8089    1.5504 H   0  0  0  0  0  0  0  0  0  0  0  0
   -1.3305    1.5043    1.3172 O   0  0  0  0  0  0  0  0  0  0  0  0
   -1.2151    1.9661    2.5188 C   0  0  0  0  0  0  0  0  0  0  0  0
   -1.8301    1.6091    3.5148 O   0  0  0  0  0  0  0  0  0  0  0  0
   -0.1899    3.0361    2.5944 C   0  0  0  0  0  0  0  0  0  0  0  0
    0.0084    3.6866    3.8088 C   0  0  0  0  0  0  0  0  0  0  0  0
    0.9518    4.6910    3.9205 C   0  0  0  0  0  0  0  0  0  0  0  0
    1.7086    5.0520    2.8156 C   0  0  0  0  0  0  0  0  0  0  0  0
    1.5212    4.4077    1.6021 C   0  0  0  0  0  0  0  0  0  0  0  0
    0.5770    3.4024    1.4920 C   0  0  0  0  0  0  0  0  0  0  0  0
    0.4166    2.8883    0.5495 H   0  0  0  0  0  0  0  0  0  0  0  0
    2.1164    4.6918    0.7408 H   0  0  0  0  0  0  0  0  0  0  0  0
    2.4488    5.8399    2.9016 H   0  0  0  0  0  0  0  0  0  0  0  0
    1.1018    5.1967    4.8685 H   0  0  0  0  0  0  0  0  0  0  0  0
   -0.5958    3.3868    4.6610 H   0  0  0  0  0  0  0  0  0  0  0  0
   -2.5522    0.6992   -0.5099 C   0  0  0  0  0  0  0  0  0  0  0  0
   -1.8631    0.0109   -0.9937 H   0  0  0  0  0  0  0  0  0  0  0  0
   -2.0802    2.1082   -0.9012 C   0  0  0  0  0  0  0  0  0  0  0  0
   -2.5566    3.2663   -0.0221 C   0  0  0  0  0  0  0  0  0  0  0  0
   -3.1925    3.0107    0.8236 H   0  0  0  0  0  0  0  0  0  0  0  0
   -1.7487    3.9272    0.2982 H   0  0  0  0  0  0  0  0  0  0  0  0
   -3.3236    3.8441   -1.1032 O   0  0  0  0  0  0  0  0  0  0  0  0
   -2.7591    2.8934   -2.0396 C   0  0  0  0  0  0  0  0  0  0  0  0
   -3.8326    2.2583   -2.8888 C   0  0  0  0  0  0  0  0  0  0  0  0
   -3.6284    2.3963   -3.9508 H   0  0  0  0  0  0  0  0  0  0  0  0
   -4.7820    2.7481   -2.6627 H   0  0  0  0  0  0  0  0  0  0  0  0
   -3.9873    0.7715   -2.6129 C   0  0  0  0  0  0  0  0  0  0  0  0
   -5.2251    0.4217   -3.1963 O   0  0  0  0  0  0  0  0  0  0  0  0
   -5.6034   -0.3372   -2.7103 H   0  0  0  0  0  0  0  0  0  0  0  0
   -3.1585    0.2311   -3.0899 H   0  0  0  0  0  0  0  0  0  0  0  0
   -3.9487    0.4034   -1.0978 C   0  0  0  0  0  0  0  0  0  0  0  0
   -4.3140   -1.0684   -1.2356 C   0  0  0  0  0  0  0  0  0  0  0  0
   -5.4673   -1.3754   -1.4229 O   0  0  0  0  0  0  0  0  0  0  0  0
   -3.1694   -2.0002   -1.5213 C   0  0  0  0  0  0  0  0  0  0  0  0
   -2.5601   -1.4230   -2.2308 H   0  0  0  0  0  0  0  0  0  0  0  0
   -3.4669   -3.1271   -2.3242 O   0  0  0  0  0  0  0  0  0  0  0  0
   -4.2671   -4.0925   -2.0427 C   0  0  0  0  0  0  0  0  0  0  0  0
   -4.4307   -4.9709   -2.8796 O   0  0  0  0  0  0  0  0  0  0  0  0
   -4.9807   -4.1872   -0.7111 C   0  0  0  0  0  0  0  0  0  0  0  0
   -5.5812   -5.0914   -0.6999 H   0  0  0  0  0  0  0  0  0  0  0  0
   -5.6254   -3.3241   -0.5805 H   0  0  0  0  0  0  0  0  0  0  0  0
   -4.2569   -4.2298    0.0948 H   0  0  0  0  0  0  0  0  0  0  0  0
   -5.0752    1.1688   -0.4045 C   0  0  0  0  0  0  0  0  0  0  0  0
   -5.0623    0.9982    0.6701 H   0  0  0  0  0  0  0  0  0  0  0  0
   -4.9890    2.2390   -0.5831 H   0  0  0  0  0  0  0  0  0  0  0  0
   -6.0253    0.8110   -0.8030 H   0  0  0  0  0  0  0  0  0  0  0  0
   -2.0059    3.3831   -2.6604 H   0  0  0  0  0  0  0  0  0  0  0  0
   -0.6743    2.1737   -1.0501 O   0  0  0  0  0  0  0  0  0  0  0  0
   -0.1521    1.4485   -1.9837 C   0  0  0  0  0  0  0  0  0  0  0  0
   -0.7285    0.6656   -2.7189 O   0  0  0  0  0  0  0  0  0  0  0  0
    1.3375    1.6978   -2.0808 C   0  0  0  0  0  0  0  0  0  0  0  0
    1.7511    1.0817   -2.8751 H   0  0  0  0  0  0  0  0  0  0  0  0
    1.8175    1.4371   -1.1410 H   0  0  0  0  0  0  0  0  0  0  0  0
    1.5290    2.7471   -2.2876 H   0  0  0  0  0  0  0  0  0  0  0  0
   -0.1222   -3.1095    1.2560 H   0  0  0  0  0  0  0  0  0  0  0  0
    1.3338   -2.2526    0.1026 O   0  0  0  0  0  0  0  0  0  0  0  0
    2.1858   -2.6948    0.9652 C   0  0  0  0  0  0  0  0  0  0  0  0
    1.9751   -3.0385    2.1188 O   0  0  0  0  0  0  0  0  0  0  0  0
    3.6053   -2.7701    0.4455 C   0  0  0  0  0  0  0  0  0  0  0  0
    4.4062   -3.3220    1.4702 O   0  0  0  0  0  0  0  0  0  0  0  0
    3.8044   -3.4581    2.2263 H   0  0  0  0  0  0  0  0  0  0  0  0
    3.6627   -3.3996   -0.4477 H   0  0  0  0  0  0  0  0  0  0  0  0
    4.1260   -1.3617    0.0928 C   0  0  0  0  0  0  0  0  0  0  0  0
    3.3296   -0.8673   -0.9983 N   0  0  0  0  0  0  0  0  0  0  0  0
    3.7806   -0.5412   -2.2306 C   0  0  0  0  0  0  0  0  0  0  0  0
    3.0421   -0.4974   -3.1984 O   0  0  0  0  0  0  0  0  0  0  0  0
    5.2142   -0.1826   -2.3545 C   0  0  0  0  0  0  0  0  0  0  0  0
    5.8758    0.6141   -1.4260 C   0  0  0  0  0  0  0  0  0  0  0  0
    7.1974    0.9741   -1.6286 C   0  0  0  0  0  0  0  0  0  0  0  0
    7.8692    0.5436   -2.7614 C   0  0  0  0  0  0  0  0  0  0  0  0
    7.2120   -0.2327   -3.7037 C   0  0  0  0  0  0  0  0  0  0  0  0
    5.8890   -0.5824   -3.5043 C   0  0  0  0  0  0  0  0  0  0  0  0
    5.3581   -1.1798   -4.2400 H   0  0  0  0  0  0  0  0  0  0  0  0
    7.7334   -0.5583   -4.5975 H   0  0  0  0  0  0  0  0  0  0  0  0
    8.9059    0.8220   -2.9160 H   0  0  0  0  0  0  0  0  0  0  0  0
    7.7066    1.5961   -0.9000 H   0  0  0  0  0  0  0  0  0  0  0  0
    5.3466    0.9672   -0.5481 H   0  0  0  0  0  0  0  0  0  0  0  0
    2.3537   -1.1358   -0.9281 H   0  0  0  0  0  0  0  0  0  0  0  0
    4.0516   -0.4923    1.3156 C   0  0  0  0  0  0  0  0  0  0  0  0
    3.0089    0.3983    1.5221 C   0  0  0  0  0  0  0  0  0  0  0  0
    2.9322    1.1304    2.6950 C   0  0  0  0  0  0  0  0  0  0  0  0
    3.8995    0.9763    3.6747 C   0  0  0  0  0  0  0  0  0  0  0  0
    4.9427    0.0849    3.4790 C   0  0  0  0  0  0  0  0  0  0  0  0
    5.0139   -0.6459    2.3055 C   0  0  0  0  0  0  0  0  0  0  0  0
    5.8160   -1.3593    2.1477 H   0  0  0  0  0  0  0  0  0  0  0  0
    5.7005   -0.0414    4.2446 H   0  0  0  0  0  0  0  0  0  0  0  0
    3.8392    1.5500    4.5927 H   0  0  0  0  0  0  0  0  0  0  0  0
    2.1115    1.8204    2.8475 H   0  0  0  0  0  0  0  0  0  0  0  0
    2.2508    0.5204    0.7560 H   0  0  0  0  0  0  0  0  0  0  0  0
    5.1623   -1.4470   -0.2310 H   0  0  0  0  0  0  0  0  0  0  0  0
  1  2  2  0  0  0  0
  2  3  1  0  0  0  0
  3  4  1  0  0  0  0
  3  5  1  0  0  0  0
  3  6  1  0  0  0  0
  2  7  1  0  0  0  0
  7  8  1  0  0  0  0
  8  9  1  0  0  0  0
  8 10  1  0  0  0  0
  8 11  1  0  0  0  0
 11 12  1  0  0  0  0
 12 13  1  0  0  0  0
  1 14  1  0  0  0  0
 11 14  1  0  0  0  0
 14 15  1  0  0  0  0
 15 16  1  0  0  0  0
 15 17  1  0  0  0  0
 15 18  1  0  0  0  0
 14 19  1  0  0  0  0
 19 20  1  0  0  0  0
 19 21  1  0  0  0  0
 19 22  1  0  0  0  0
 11 23  1  0  0  0  0
 23 24  1  0  0  0  0
 23 25  1  0  0  0  0
 25 26  1  0  0  0  0
 26 27  2  0  0  0  0
 26 28  1  0  0  0  0
 28 29  4  0  0  0  0
 29 30  4  0  0  0  0
 30 31  4  0  0  0  0
 31 32  4  0  0  0  0
 28 33  4  0  0  0  0
 32 33  4  0  0  0  0
 33 34  1  0  0  0  0
 32 35  1  0  0  0  0
 31 36  1  0  0  0  0
 30 37  1  0  0  0  0
 29 38  1  0  0  0  0
 23 39  1  0  0  0  0
 39 40  1  0  0  0  0
 39 41  1  0  0  0  0
 41 42  1  0  0  0  0
 42 43  1  0  0  0  0
 42 44  1  0  0  0  0
 42 45  1  0  0  0  0
 41 46  1  0  0  0  0
 45 46  1  0  0  0  0
 46 47  1  0  0  0  0
 47 48  1  0  0  0  0
 47 49  1  0  0  0  0
 47 50  1  0  0  0  0
 50 51  1  0  0  0  0
 51 52  1  0  0  0  0
 50 53  1  0  0  0  0
 39 54  1  0  0  0  0
 50 54  1  0  0  0  0
 54 55  1  0  0  0  0
 55 56  2  0  0  0  0
  1 57  1  0  0  0  0
 55 57  1  0  0  0  0
 57 58  1  0  0  0  0
 57 59  1  0  0  0  0
 59 60  1  0  0  0  0
 60 61  2  0  0  0  0
 60 62  1  0  0  0  0
 62 63  1  0  0  0  0
 62 64  1  0  0  0  0
 62 65  1  0  0  0  0
 54 66  1  0  0  0  0
 66 67  1  0  0  0  0
 66 68  1  0  0  0  0
 66 69  1  0  0  0  0
 46 70  1  0  0  0  0
 41 71  1  0  0  0  0
 71 72  1  0  0  0  0
 72 73  2  0  0  0  0
 72 74  1  0  0  0  0
 74 75  1  0  0  0  0
 74 76  1  0  0  0  0
 74 77  1  0  0  0  0
  7 78  1  0  0  0  0
  7 79  1  0  0  0  0
 79 80  1  0  0  0  0
 80 81  2  0  0  0  0
 80 82  1  0  0  0  0
 82 83  1  0  0  0  0
 83 84  1  0  0  0  0
 82 85  1  0  0  0  0
 82 86  1  0  0  0  0
 86 87  1  0  0  0  0
 87 88  4  0  0  0  0
 88 89  2  0  0  0  0
 88 90  1  0  0  0  0
 90 91  4  0  0  0  0
 91 92  4  0  0  0  0
 92 93  4  0  0  0  0
 93 94  4  0  0  0  0
 90 95  4  0  0  0  0
 94 95  4  0  0  0  0
 95 96  1  0  0  0  0
 94 97  1  0  0  0  0
 93 98  1  0  0  0  0
 92 99  1  0  0  0  0
 91100  1  0  0  0  0
 87101  1  0  0  0  0
 86102  1  0  0  0  0
102103  4  0  0  0  0
103104  4  0  0  0  0
104105  4  0  0  0  0
105106  4  0  0  0  0
102107  4  0  0  0  0
106107  4  0  0  0  0
107108  1  0  0  0  0
106109  1  0  0  0  0
105110  1  0  0  0  0
104111  1  0  0  0  0
103112  1  0  0  0  0
 86113  1  0  0  0  0
M  END
