 xtb: 6.7.1 (b9eb0ff)
          06252616323D

113119  0     0  0            999 V2000
   -2.3227   -2.2204   -0.2108 C   0  0  0  0  0  0  0  0  0  0  0  0
   -1.0491   -2.4451   -0.5751 C   0  0  0  0  0  0  0  0  0  0  0  0
   -0.6092   -2.7460   -1.9704 C   0  0  0  0  0  0  0  0  0  0  0  0
   -0.4301   -1.8161   -2.5160 H   0  0  0  0  0  0  0  0  0  0  0  0
   -1.3574   -3.3229   -2.5059 H   0  0  0  0  0  0  0  0  0  0  0  0
    0.3223   -3.3055   -1.9573 H   0  0  0  0  0  0  0  0  0  0  0  0
    0.0092   -2.2007    0.4641 C   0  0  0  0  0  0  0  0  0  0  0  0
   -0.2720   -0.8090    1.0460 C   0  0  0  0  0  0  0  0  0  0  0  0
   -0.0597   -0.0705    0.2729 H   0  0  0  0  0  0  0  0  0  0  0  0
    0.3925   -0.6200    1.8902 H   0  0  0  0  0  0  0  0  0  0  0  0
   -1.7215   -0.6418    1.5514 C   0  0  0  0  0  0  0  0  0  0  0  0
   -1.5901   -0.4490    2.9410 O   0  0  0  0  0  0  0  0  0  0  0  0
   -2.4199   -0.1358    3.3242 H   0  0  0  0  0  0  0  0  0  0  0  0
   -2.6032   -1.9058    1.2508 C   0  0  0  0  0  0  0  0  0  0  0  0
   -4.0476   -1.5956    1.6577 C   0  0  0  0  0  0  0  0  0  0  0  0
   -4.4927   -0.7844    1.1014 H   0  0  0  0  0  0  0  0  0  0  0  0
   -4.6826   -2.4664    1.5464 H   0  0  0  0  0  0  0  0  0  0  0  0
   -4.0585   -1.3227    2.7130 H   0  0  0  0  0  0  0  0  0  0  0  0
   -2.1767   -3.0887    2.1638 C   0  0  0  0  0  0  0  0  0  0  0  0
   -1.4267   -2.7697    2.8824 H   0  0  0  0  0  0  0  0  0  0  0  0
   -1.7955   -3.9291    1.5901 H   0  0  0  0  0  0  0  0  0  0  0  0
   -3.0306   -3.4459    2.7339 H   0  0  0  0  0  0  0  0  0  0  0  0
   -2.3520    0.6703    0.9604 C   0  0  0  0  0  0  0  0  0  0  0  0
   -3.2673    0.8926    1.5215 H   0  0  0  0  0  0  0  0  0  0  0  0
   -1.4054    1.6795    1.3254 O   0  0  0  0  0  0  0  0  0  0  0  0
   -1.6291    2.3570    2.4617 C   0  0  0  0  0  0  0  0  0  0  0  0
   -2.6269    2.2246    3.1324 O   0  0  0  0  0  0  0  0  0  0  0  0
   -0.5248    3.2868    2.7762 C   0  0  0  0  0  0  0  0  0  0  0  0
   -0.5065    3.8994    4.0270 C   0  0  0  0  0  0  0  0  0  0  0  0
    0.5179    4.7667    4.3560 C   0  0  0  0  0  0  0  0  0  0  0  0
    1.5234    5.0302    3.4391 C   0  0  0  0  0  0  0  0  0  0  0  0
    1.5047    4.4278    2.1903 C   0  0  0  0  0  0  0  0  0  0  0  0
    0.4860    3.5552    1.8550 C   0  0  0  0  0  0  0  0  0  0  0  0
    0.4547    3.0860    0.8841 H   0  0  0  0  0  0  0  0  0  0  0  0
    2.2892    4.6384    1.4786 H   0  0  0  0  0  0  0  0  0  0  0  0
    2.3233    5.7087    3.6960 H   0  0  0  0  0  0  0  0  0  0  0  0
    0.5340    5.2392    5.3265 H   0  0  0  0  0  0  0  0  0  0  0  0
   -1.3005    3.6791    4.7238 H   0  0  0  0  0  0  0  0  0  0  0  0
   -2.6316    0.7723   -0.5728 C   0  0  0  0  0  0  0  0  0  0  0  0
   -1.9561    0.0771   -1.0728 H   0  0  0  0  0  0  0  0  0  0  0  0
   -2.1817    2.1750   -1.0473 C   0  0  0  0  0  0  0  0  0  0  0  0
   -2.6518    3.4189   -0.2740 C   0  0  0  0  0  0  0  0  0  0  0  0
   -3.3230    3.2608    0.5701 H   0  0  0  0  0  0  0  0  0  0  0  0
   -1.8244    4.0685    0.0246 H   0  0  0  0  0  0  0  0  0  0  0  0
   -3.3388    3.9220   -1.4119 O   0  0  0  0  0  0  0  0  0  0  0  0
   -2.8697    2.8611   -2.2529 C   0  0  0  0  0  0  0  0  0  0  0  0
   -3.9877    2.1596   -2.9943 C   0  0  0  0  0  0  0  0  0  0  0  0
   -3.8238    2.2014   -4.0702 H   0  0  0  0  0  0  0  0  0  0  0  0
   -4.9231    2.6801   -2.7874 H   0  0  0  0  0  0  0  0  0  0  0  0
   -4.1603    0.6886   -2.6220 C   0  0  0  0  0  0  0  0  0  0  0  0
   -5.3974    0.3419   -3.1698 O   0  0  0  0  0  0  0  0  0  0  0  0
   -5.6741   -0.5460   -2.9079 H   0  0  0  0  0  0  0  0  0  0  0  0
   -3.3468    0.1157   -3.0957 H   0  0  0  0  0  0  0  0  0  0  0  0
   -4.0727    0.4372   -1.0577 C   0  0  0  0  0  0  0  0  0  0  0  0
   -4.4466   -1.0519   -1.0251 C   0  0  0  0  0  0  0  0  0  0  0  0
   -5.6043   -1.4048   -1.0335 O   0  0  0  0  0  0  0  0  0  0  0  0
   -3.3245   -2.0345   -1.3313 C   0  0  0  0  0  0  0  0  0  0  0  0
   -2.7614   -1.5482   -2.1428 H   0  0  0  0  0  0  0  0  0  0  0  0
   -3.7686   -3.1936   -2.0347 O   0  0  0  0  0  0  0  0  0  0  0  0
   -4.4610   -4.2709   -1.6163 C   0  0  0  0  0  0  0  0  0  0  0  0
   -4.6979   -5.1105   -2.4394 O   0  0  0  0  0  0  0  0  0  0  0  0
   -4.8753   -4.3741   -0.1789 C   0  0  0  0  0  0  0  0  0  0  0  0
   -5.3255   -5.3493   -0.0177 H   0  0  0  0  0  0  0  0  0  0  0  0
   -5.6121   -3.6006    0.0259 H   0  0  0  0  0  0  0  0  0  0  0  0
   -4.0106   -4.2547    0.4674 H   0  0  0  0  0  0  0  0  0  0  0  0
   -5.1780    1.2622   -0.3917 C   0  0  0  0  0  0  0  0  0  0  0  0
   -5.2178    1.1118    0.6847 H   0  0  0  0  0  0  0  0  0  0  0  0
   -5.0451    2.3200   -0.5859 H   0  0  0  0  0  0  0  0  0  0  0  0
   -6.1360    0.9569   -0.8073 H   0  0  0  0  0  0  0  0  0  0  0  0
   -2.1153    3.2449   -2.9506 H   0  0  0  0  0  0  0  0  0  0  0  0
   -0.7596    2.2237   -1.1855 O   0  0  0  0  0  0  0  0  0  0  0  0
   -0.1688    1.5107   -2.1609 C   0  0  0  0  0  0  0  0  0  0  0  0
   -0.7382    0.6766   -2.8185 O   0  0  0  0  0  0  0  0  0  0  0  0
    1.2649    1.9149   -2.3112 C   0  0  0  0  0  0  0  0  0  0  0  0
    1.8271    1.1611   -2.8592 H   0  0  0  0  0  0  0  0  0  0  0  0
    1.7113    2.1126   -1.3403 H   0  0  0  0  0  0  0  0  0  0  0  0
    1.2932    2.8405   -2.8849 H   0  0  0  0  0  0  0  0  0  0  0  0
    0.0057   -2.9433    1.2640 H   0  0  0  0  0  0  0  0  0  0  0  0
    1.3263   -2.2394   -0.1089 O   0  0  0  0  0  0  0  0  0  0  0  0
    2.2713   -2.8022    0.6311 C   0  0  0  0  0  0  0  0  0  0  0  0
    2.1226   -3.2325    1.7474 O   0  0  0  0  0  0  0  0  0  0  0  0
    3.6240   -2.8845   -0.0662 C   0  0  0  0  0  0  0  0  0  0  0  0
    4.4764   -3.6893    0.6858 O   0  0  0  0  0  0  0  0  0  0  0  0
    4.0739   -3.8020    1.5641 H   0  0  0  0  0  0  0  0  0  0  0  0
    3.4997   -3.3320   -1.0618 H   0  0  0  0  0  0  0  0  0  0  0  0
    4.2200   -1.4510   -0.2492 C   0  0  0  0  0  0  0  0  0  0  0  0
    3.5952   -0.8093   -1.3742 N   0  0  0  0  0  0  0  0  0  0  0  0
    4.1993   -0.2674   -2.4606 C   0  0  0  0  0  0  0  0  0  0  0  0
    3.5429    0.0628   -3.4317 O   0  0  0  0  0  0  0  0  0  0  0  0
    5.6730   -0.0670   -2.3887 C   0  0  0  0  0  0  0  0  0  0  0  0
    6.2641    0.5948   -1.3167 C   0  0  0  0  0  0  0  0  0  0  0  0
    7.6306    0.8093   -1.3074 C   0  0  0  0  0  0  0  0  0  0  0  0
    8.4131    0.3642   -2.3603 C   0  0  0  0  0  0  0  0  0  0  0  0
    7.8256   -0.2816   -3.4358 C   0  0  0  0  0  0  0  0  0  0  0  0
    6.4584   -0.4878   -3.4563 C   0  0  0  0  0  0  0  0  0  0  0  0
    5.9854   -0.9775   -4.2941 H   0  0  0  0  0  0  0  0  0  0  0  0
    8.4330   -0.6197   -4.2618 H   0  0  0  0  0  0  0  0  0  0  0  0
    9.4803    0.5281   -2.3458 H   0  0  0  0  0  0  0  0  0  0  0  0
    8.0855    1.3256   -0.4751 H   0  0  0  0  0  0  0  0  0  0  0  0
    5.6540    0.9546   -0.5005 H   0  0  0  0  0  0  0  0  0  0  0  0
    2.5935   -0.9374   -1.4550 H   0  0  0  0  0  0  0  0  0  0  0  0
    4.0752   -0.6776    1.0439 C   0  0  0  0  0  0  0  0  0  0  0  0
    3.0654    0.2582    1.2224 C   0  0  0  0  0  0  0  0  0  0  0  0
    2.9177    0.9076    2.4360 C   0  0  0  0  0  0  0  0  0  0  0  0
    3.7811    0.6298    3.4811 C   0  0  0  0  0  0  0  0  0  0  0  0
    4.7977   -0.2942    3.3063 C   0  0  0  0  0  0  0  0  0  0  0  0
    4.9460   -0.9436    2.0940 C   0  0  0  0  0  0  0  0  0  0  0  0
    5.7368   -1.6658    1.9560 H   0  0  0  0  0  0  0  0  0  0  0  0
    5.4779   -0.5105    4.1164 H   0  0  0  0  0  0  0  0  0  0  0  0
    3.6613    1.1347    4.4278 H   0  0  0  0  0  0  0  0  0  0  0  0
    2.1239    1.6286    2.5654 H   0  0  0  0  0  0  0  0  0  0  0  0
    2.3944    0.4857    0.4082 H   0  0  0  0  0  0  0  0  0  0  0  0
    5.2836   -1.5965   -0.4680 H   0  0  0  0  0  0  0  0  0  0  0  0
  1  2  2  0  0  0  0
  2  3  1  0  0  0  0
  3  4  1  0  0  0  0
  3  5  1  0  0  0  0
  3  6  1  0  0  0  0
  2  7  1  0  0  0  0
  7  8  1  0  0  0  0
  8  9  1  0  0  0  0
  8 10  1  0  0  0  0
  8 11  1  0  0  0  0
 11 12  1  0  0  0  0
 12 13  1  0  0  0  0
  1 14  1  0  0  0  0
 11 14  1  0  0  0  0
 14 15  1  0  0  0  0
 15 16  1  0  0  0  0
 15 17  1  0  0  0  0
 15 18  1  0  0  0  0
 14 19  1  0  0  0  0
 19 20  1  0  0  0  0
 19 21  1  0  0  0  0
 19 22  1  0  0  0  0
 11 23  1  0  0  0  0
 23 24  1  0  0  0  0
 23 25  1  0  0  0  0
 25 26  1  0  0  0  0
 26 27  2  0  0  0  0
 26 28  1  0  0  0  0
 28 29  4  0  0  0  0
 29 30  4  0  0  0  0
 30 31  4  0  0  0  0
 31 32  4  0  0  0  0
 28 33  4  0  0  0  0
 32 33  4  0  0  0  0
 33 34  1  0  0  0  0
 32 35  1  0  0  0  0
 31 36  1  0  0  0  0
 30 37  1  0  0  0  0
 29 38  1  0  0  0  0
 23 39  1  0  0  0  0
 39 40  1  0  0  0  0
 39 41  1  0  0  0  0
 41 42  1  0  0  0  0
 42 43  1  0  0  0  0
 42 44  1  0  0  0  0
 42 45  1  0  0  0  0
 41 46  1  0  0  0  0
 45 46  1  0  0  0  0
 46 47  1  0  0  0  0
 47 48  1  0  0  0  0
 47 49  1  0  0  0  0
 47 50  1  0  0  0  0
 50 51  1  0  0  0  0
 51 52  1  0  0  0  0
 50 53  1  0  0  0  0
 39 54  1  0  0  0  0
 50 54  1  0  0  0  0
 54 55  1  0  0  0  0
 55 56  2  0  0  0  0
  1 57  1  0  0  0  0
 55 57  1  0  0  0  0
 57 58  1  0  0  0  0
 57 59  1  0  0  0  0
 59 60  1  0  0  0  0
 60 61  2  0  0  0  0
 60 62  1  0  0  0  0
 62 63  1  0  0  0  0
 62 64  1  0  0  0  0
 62 65  1  0  0  0  0
 54 66  1  0  0  0  0
 66 67  1  0  0  0  0
 66 68  1  0  0  0  0
 66 69  1  0  0  0  0
 46 70  1  0  0  0  0
 41 71  1  0  0  0  0
 71 72  1  0  0  0  0
 72 73  2  0  0  0  0
 72 74  1  0  0  0  0
 74 75  1  0  0  0  0
 74 76  1  0  0  0  0
 74 77  1  0  0  0  0
  7 78  1  0  0  0  0
  7 79  1  0  0  0  0
 79 80  1  0  0  0  0
 80 81  2  0  0  0  0
 80 82  1  0  0  0  0
 82 83  1  0  0  0  0
 83 84  1  0  0  0  0
 82 85  1  0  0  0  0
 82 86  1  0  0  0  0
 86 87  1  0  0  0  0
 87 88  4  0  0  0  0
 88 89  2  0  0  0  0
 88 90  1  0  0  0  0
 90 91  4  0  0  0  0
 91 92  4  0  0  0  0
 92 93  4  0  0  0  0
 93 94  4  0  0  0  0
 90 95  4  0  0  0  0
 94 95  4  0  0  0  0
 95 96  1  0  0  0  0
 94 97  1  0  0  0  0
 93 98  1  0  0  0  0
 92 99  1  0  0  0  0
 91100  1  0  0  0  0
 87101  1  0  0  0  0
 86102  1  0  0  0  0
102103  4  0  0  0  0
103104  4  0  0  0  0
104105  4  0  0  0  0
105106  4  0  0  0  0
102107  4  0  0  0  0
106107  4  0  0  0  0
107108  1  0  0  0  0
106109  1  0  0  0  0
105110  1  0  0  0  0
104111  1  0  0  0  0
103112  1  0  0  0  0
 86113  1  0  0  0  0
M  END
